/*--------------------------------*- C++ -*----------------------------------*\
| =========                 |                                                 |
| \\      /  F ield         | OpenFOAM: The Open Source CFD Toolbox           |
|  \\    /   O peration     | Version:  3.0.1                                 |
|   \\  /    A nd           | Web:      www.OpenFOAM.org                      |
|    \\/     M anipulation  |                                                 |
\*---------------------------------------------------------------------------*/
FoamFile
{
    version     2.0;
    format      binary;
    class       polyBoundaryMesh;
    location    "constant/polyMesh";
    object      boundary;
}
// * * * * * * * * * * * * * * * * * * * * * * * * * * * * * * * * * * * * * //

8
(
    outlet
    {
        type            patch;
        nFaces          0;
        startFace       90745;
    }
    sides
    {
        type            patch;
        nFaces          0;
        startFace       90745;
    }
    inlet
    {
        type            patch;
        nFaces          0;
        startFace       90745;
    }
    ground
    {
        type            wall;
        inGroups        1(wall);
        nFaces          0;
        startFace       90745;
    }
    top
    {
        type            patch;
        nFaces          0;
        startFace       90745;
    }
    terrain
    {
        type            wall;
        inGroups        1(wall);
        nFaces          151;
        startFace       90745;
    }
    procBoundary0to1
    {
        type            processor;
        inGroups        1(processor);
        nFaces          1294;
        startFace       90896;
        matchTolerance  0.0001;
        transform       unknown;
        myProcNo        0;
        neighbProcNo    1;
    }
    procBoundary0to2
    {
        type            processor;
        inGroups        1(processor);
        nFaces          130;
        startFace       92190;
        matchTolerance  0.0001;
        transform       unknown;
        myProcNo        0;
        neighbProcNo    2;
    }
)

// ************************************************************************* //
