/*--------------------------------*- C++ -*----------------------------------*\
| =========                 |                                                 |
| \\      /  F ield         | OpenFOAM: The Open Source CFD Toolbox           |
|  \\    /   O peration     | Version:  3.0.1                                 |
|   \\  /    A nd           | Web:      www.OpenFOAM.org                      |
|    \\/     M anipulation  |                                                 |
\*---------------------------------------------------------------------------*/
FoamFile
{
    version     2.0;
    format      binary;
    class       polyBoundaryMesh;
    location    "constant/polyMesh";
    object      boundary;
}
// * * * * * * * * * * * * * * * * * * * * * * * * * * * * * * * * * * * * * //

9
(
    outlet
    {
        type            patch;
        nFaces          0;
        startFace       91618;
    }
    sides
    {
        type            patch;
        nFaces          0;
        startFace       91618;
    }
    inlet
    {
        type            patch;
        nFaces          0;
        startFace       91618;
    }
    ground
    {
        type            wall;
        inGroups        1(wall);
        nFaces          0;
        startFace       91618;
    }
    top
    {
        type            patch;
        nFaces          0;
        startFace       91618;
    }
    terrain
    {
        type            wall;
        inGroups        1(wall);
        nFaces          354;
        startFace       91618;
    }
    procBoundary1to0
    {
        type            processor;
        inGroups        1(processor);
        nFaces          1294;
        startFace       91972;
        matchTolerance  0.0001;
        transform       unknown;
        myProcNo        1;
        neighbProcNo    0;
    }
    procBoundary1to3
    {
        type            processor;
        inGroups        1(processor);
        nFaces          133;
        startFace       93266;
        matchTolerance  0.0001;
        transform       unknown;
        myProcNo        1;
        neighbProcNo    3;
    }
    procBoundary1to2
    {
        type            processor;
        inGroups        1(processor);
        nFaces          129;
        startFace       93399;
        matchTolerance  0.0001;
        transform       unknown;
        myProcNo        1;
        neighbProcNo    2;
    }
)

// ************************************************************************* //
